<?xml version="1.0" encoding="UTF-8"?>

<!-- generated on 2022-10-05 11:35:47 by Eclipse SUMO netedit Version v1_12_0+2435-bf5f7a8a104
-->

<routes xmlns:xsi="http://www.w3.org/2001/XMLSchema-instance" xsi:noNamespaceSchemaLocation="http://sumo.dlr.de/xsd/routes_file.xsd">
    <!-- Vehicles, persons and containers (sorted by depart) -->
    <flow id="f_0" begin="0.00" fromJunction="436220650" toJunction="J1" end="3600.00" vehsPerHour="1800.00"/>
    <flow id="f_7" begin="0.00" fromJunction="558884038" toJunction="J1" end="3600.00" vehsPerHour="5397.30"/>
</routes>
