<?xml version="1.0" encoding="UTF-8"?>

<!-- generated on 2022-10-04 17:38:21 by Eclipse SUMO GUI Version 1.14.1
-->

<configuration xmlns:xsi="http://www.w3.org/2001/XMLSchema-instance" xsi:noNamespaceSchemaLocation="http://sumo.dlr.de/xsd/sumoConfiguration.xsd">

    <input>
        <net-file value="singal_bus.net_v1.xml.net.xml"/>
        <route-files value="demand1.rou.xml"/>
    </input>

</configuration>
