<?xml version="1.0" encoding="UTF-8"?>

<!-- generated on 2022-10-04 17:59:36 by Eclipse SUMO netedit Version v1_12_0+2435-bf5f7a8a104
<configuration xmlns:xsi="http://www.w3.org/2001/XMLSchema-instance" xsi:noNamespaceSchemaLocation="http://sumo.dlr.de/xsd/netconvertConfiguration.xsd">

    <input>
        <sumo-net-file value="/home/ubuntu/project/lane_change_sumo/envs/singal_bus.net_v1.xml.net.xml"/>
    </input>

    <output>
        <output-file value="/home/ubuntu/project/lane_change_sumo/envs/singal_bus.net_v1.xml.net.xml"/>
        <output.street-names value="true"/>
    </output>

    <processing>
        <geometry.min-radius.fix.railways value="false"/>
        <geometry.max-grade.fix value="false"/>
        <offset.disable-normalization value="true"/>
        <lefthand value="false"/>
    </processing>

    <junctions>
        <no-turnarounds value="true"/>
        <junctions.corner-detail value="5"/>
        <junctions.limit-turn-speed value="5.5"/>
        <rectangular-lane-cut value="false"/>
    </junctions>

    <pedestrian>
        <walkingareas value="false"/>
    </pedestrian>

    <report>
        <aggregate-warnings value="5"/>
    </report>

</configuration>
-->

<net version="1.9" junctionCornerDetail="5" limitTurnSpeed="5.50" xmlns:xsi="http://www.w3.org/2001/XMLSchema-instance" xsi:noNamespaceSchemaLocation="http://sumo.dlr.de/xsd/net_file.xsd">

    <location netOffset="-329774.10,-4119151.11" convBoundary="1210.60,0.00,4793.26,10942.20" origBoundary="127.079533,37.203543,127.133703,37.373108" projParameter="+proj=utm +zone=52 +ellps=WGS84 +datum=WGS84 +units=m +no_defs"/>

    <type id="highway.bridleway" priority="1" numLanes="1" speed="2.78" allow="pedestrian" oneway="1" width="2.00"/>
    <type id="highway.bus_guideway" priority="1" numLanes="1" speed="27.78" allow="bus" oneway="1"/>
    <type id="highway.cycleway" priority="1" numLanes="1" speed="8.33" allow="bicycle" oneway="0" width="1.00"/>
    <type id="highway.footway" priority="1" numLanes="1" speed="2.78" allow="pedestrian" oneway="1" width="2.00"/>
    <type id="highway.ford" priority="1" numLanes="1" speed="2.78" allow="army" oneway="0"/>
    <type id="highway.living_street" priority="2" numLanes="1" speed="2.78" disallow="tram rail_urban rail rail_electric rail_fast ship" oneway="0"/>
    <type id="highway.motorway" priority="14" numLanes="2" speed="39.44" allow="private emergency authority army vip passenger hov taxi bus coach delivery truck trailer motorcycle evehicle custom1 custom2" oneway="1"/>
    <type id="highway.motorway_link" priority="9" numLanes="1" speed="22.22" allow="private emergency authority army vip passenger hov taxi bus coach delivery truck trailer motorcycle evehicle custom1 custom2" oneway="1"/>
    <type id="highway.path" priority="1" numLanes="1" speed="2.78" allow="pedestrian bicycle" oneway="0" width="2.00"/>
    <type id="highway.pedestrian" priority="1" numLanes="1" speed="2.78" allow="pedestrian" oneway="1" width="2.00"/>
    <type id="highway.primary" priority="12" numLanes="2" speed="27.78" disallow="tram rail_urban rail rail_electric rail_fast ship" oneway="0"/>
    <type id="highway.primary_link" priority="7" numLanes="1" speed="22.22" disallow="tram rail_urban rail rail_electric rail_fast ship" oneway="0"/>
    <type id="highway.raceway" priority="15" numLanes="2" speed="83.33" allow="vip" oneway="0"/>
    <type id="highway.residential" priority="3" numLanes="1" speed="13.89" disallow="tram rail_urban rail rail_electric rail_fast ship" oneway="0"/>
    <type id="highway.secondary" priority="11" numLanes="1" speed="27.78" disallow="tram rail_urban rail rail_electric rail_fast ship" oneway="0"/>
    <type id="highway.secondary_link" priority="6" numLanes="1" speed="22.22" disallow="tram rail_urban rail rail_electric rail_fast ship" oneway="0"/>
    <type id="highway.service" priority="1" numLanes="1" speed="5.56" allow="pedestrian delivery bicycle" oneway="0"/>
    <type id="highway.stairs" priority="1" numLanes="1" speed="1.39" allow="pedestrian" oneway="1" width="2.00"/>
    <type id="highway.step" priority="1" numLanes="1" speed="1.39" allow="pedestrian" oneway="1" width="2.00"/>
    <type id="highway.steps" priority="1" numLanes="1" speed="1.39" allow="pedestrian" oneway="1" width="2.00"/>
    <type id="highway.tertiary" priority="10" numLanes="1" speed="22.22" disallow="tram rail_urban rail rail_electric rail_fast ship" oneway="0"/>
    <type id="highway.tertiary_link" priority="5" numLanes="1" speed="22.22" disallow="tram rail_urban rail rail_electric rail_fast ship" oneway="0"/>
    <type id="highway.track" priority="1" numLanes="1" speed="5.56" allow="pedestrian motorcycle moped bicycle" oneway="0"/>
    <type id="highway.trunk" priority="13" numLanes="2" speed="27.78" disallow="pedestrian bicycle tram rail_urban rail rail_electric rail_fast ship" oneway="0"/>
    <type id="highway.trunk_link" priority="8" numLanes="1" speed="22.22" disallow="pedestrian bicycle tram rail_urban rail rail_electric rail_fast ship" oneway="0"/>
    <type id="highway.unclassified" priority="4" numLanes="1" speed="13.89" disallow="tram rail_urban rail rail_electric rail_fast ship" oneway="0"/>
    <type id="highway.unsurfaced" priority="1" numLanes="1" speed="8.33" disallow="tram rail_urban rail rail_electric rail_fast ship" oneway="0"/>
    <type id="railway.highspeed" priority="21" numLanes="1" speed="69.44" allow="rail_fast" oneway="1"/>
    <type id="railway.light_rail" priority="19" numLanes="1" speed="27.78" allow="rail_urban" oneway="1"/>
    <type id="railway.preserved" priority="16" numLanes="1" speed="27.78" allow="rail" oneway="1"/>
    <type id="railway.rail" priority="20" numLanes="1" speed="44.44" allow="rail" oneway="1"/>
    <type id="railway.subway" priority="18" numLanes="1" speed="27.78" allow="rail_urban" oneway="1"/>
    <type id="railway.tram" priority="17" numLanes="1" speed="13.89" allow="tram" oneway="1"/>

    <edge id=":1014969648-AddedOnRampNode_0" function="internal">
        <lane id=":1014969648-AddedOnRampNode_0_0" index="0" disallow="pedestrian bicycle tram rail_urban rail rail_electric rail_fast ship" speed="22.22" length="8.00" shape="2873.67,9913.77 2880.55,9909.68"/>
    </edge>
    <edge id=":170608678#0-AddedOffRampNode_0" function="internal">
        <lane id=":170608678#0-AddedOffRampNode_0_0" index="0" disallow="pedestrian bicycle tram rail_urban rail rail_electric rail_fast ship" speed="22.22" length="7.78" shape="2928.45,9910.93 2926.84,9912.54 2926.33,9914.20 2925.87,9915.93 2924.41,9917.74"/>
        <lane id=":170608678#0-AddedOffRampNode_0_1" index="1" disallow="pedestrian bicycle tram rail_urban rail rail_electric rail_fast ship" speed="22.22" length="7.78" shape="2928.45,9910.93 2926.59,9912.12 2925.34,9912.96 2924.13,9913.87 2922.40,9915.25"/>
    </edge>
    <edge id=":1817765971_0" function="internal">
        <lane id=":1817765971_0_0" index="0" disallow="pedestrian bicycle tram rail_urban rail rail_electric rail_fast ship" speed="27.78" length="0.10" shape="2637.59,10048.27 2637.52,10048.30"/>
        <lane id=":1817765971_0_1" index="1" disallow="pedestrian bicycle tram rail_urban rail rail_electric rail_fast ship" speed="27.78" length="0.10" shape="2638.75,10051.25 2638.82,10051.22"/>
    </edge>
    <edge id=":1817765973_0" function="internal">
        <lane id=":1817765973_0_0" index="0" disallow="pedestrian bicycle tram rail_urban rail rail_electric rail_fast ship" speed="22.22" length="3.37" shape="2666.30,10020.84 2669.46,10019.65"/>
    </edge>
    <edge id=":1817765973_1" function="internal">
        <lane id=":1817765973_1_0" index="0" disallow="pedestrian bicycle tram rail_urban rail rail_electric rail_fast ship" speed="22.22" length="3.16" shape="2667.54,10023.79 2670.45,10022.55"/>
    </edge>
    <edge id=":1817765976_0" function="internal">
        <lane id=":1817765976_0_0" index="0" disallow="pedestrian bicycle tram rail_urban rail rail_electric rail_fast ship" speed="22.22" length="10.98" shape="2669.86,10057.67 2666.72,10057.51 2664.33,10057.33 2661.99,10057.47 2659.01,10058.28"/>
    </edge>
    <edge id=":1817765976_1" function="internal">
        <lane id=":1817765976_1_0" index="0" disallow="pedestrian bicycle tram rail_urban rail rail_electric rail_fast ship" speed="22.22" length="10.97" shape="2669.11,10053.99 2659.01,10058.28"/>
    </edge>
    <edge id=":1817765976_2" function="internal">
        <lane id=":1817765976_2_0" index="0" disallow="pedestrian bicycle tram rail_urban rail rail_electric rail_fast ship" speed="11.43" length="8.90" shape="2664.69,10051.83 2663.38,10054.15 2662.49,10055.86 2661.27,10057.16 2659.01,10058.28"/>
    </edge>
    <edge id=":1817765983_0" function="internal">
        <lane id=":1817765983_0_0" index="0" disallow="pedestrian bicycle tram rail_urban rail rail_electric rail_fast ship" speed="22.23" length="0.26" shape="2764.99,9987.27 2765.18,9987.16"/>
        <lane id=":1817765983_0_1" index="1" disallow="pedestrian bicycle tram rail_urban rail rail_electric rail_fast ship" speed="22.23" length="0.26" shape="2766.56,9990.06 2766.82,9989.91"/>
    </edge>
    <edge id=":1817765987_0" function="internal">
        <lane id=":1817765987_0_0" index="0" disallow="pedestrian bicycle tram rail_urban rail rail_electric rail_fast ship" speed="22.22" length="8.37" shape="2787.64,9964.76 2789.53,9963.13 2790.31,9961.43 2791.07,9959.70 2792.93,9958.02"/>
        <lane id=":1817765987_0_1" index="1" disallow="pedestrian bicycle tram rail_urban rail rail_electric rail_fast ship" speed="22.22" length="8.37" shape="2787.64,9964.76 2794.56,9960.77"/>
    </edge>
    <edge id=":1817765988_0" function="internal">
        <lane id=":1817765988_0_0" index="0" disallow="pedestrian bicycle tram rail_urban rail rail_electric rail_fast ship" speed="22.22" length="8.40" shape="2439.24,10119.73 2441.33,10118.34 2442.33,10116.74 2443.32,10115.13 2445.40,10113.72"/>
        <lane id=":1817765988_0_1" index="1" disallow="pedestrian bicycle tram rail_urban rail rail_electric rail_fast ship" speed="22.22" length="8.40" shape="2439.24,10119.73 2446.64,10116.66"/>
    </edge>
    <edge id=":1817765996_0" function="internal">
        <lane id=":1817765996_0_0" index="0" disallow="tram rail_urban rail rail_electric rail_fast ship" speed="20.43" length="40.51" shape="2725.92,9944.28 2724.88,9947.34 2723.62,9955.04 2722.12,9967.37 2720.40,9984.34"/>
    </edge>
    <edge id=":1817765996_1" function="internal">
        <lane id=":1817765996_1_0" index="0" disallow="tram rail_urban rail rail_electric rail_fast ship" speed="5.87" length="14.01" shape="2707.20,9982.67 2709.79,9979.92 2713.25,9979.33 2716.19,9980.74 2717.22,9984.04"/>
    </edge>
    <edge id=":1817765996_2" function="internal">
        <lane id=":1817765996_2_0" index="0" disallow="tram rail_urban rail rail_electric rail_fast ship" speed="3.65" length="4.67" shape="2714.03,9983.74 2714.94,9982.62 2715.78,9982.29 2716.54,9982.77 2717.22,9984.04"/>
    </edge>
    <edge id=":1817766001_0" function="internal">
        <lane id=":1817766001_0_0" index="0" disallow="tram rail_urban rail rail_electric rail_fast ship" speed="27.78" length="10.41" shape="2704.31,10127.18 2703.37,10137.47"/>
        <lane id=":1817766001_0_1" index="1" disallow="tram rail_urban rail rail_electric rail_fast ship" speed="27.78" length="10.41" shape="2701.14,10126.76 2700.18,10137.20"/>
    </edge>
    <edge id=":1817766001_2" function="internal">
        <lane id=":1817766001_2_0" index="0" allow="pedestrian delivery bicycle" speed="10.24" length="1.62" shape="2701.14,10126.76 2700.33,10128.17"/>
    </edge>
    <edge id=":1817766001_9" function="internal">
        <lane id=":1817766001_9_0" index="0" allow="pedestrian delivery bicycle" speed="10.24" length="11.78" shape="2700.33,10128.17 2698.26,10129.88 2694.91,10131.90 2690.29,10134.23"/>
    </edge>
    <edge id=":1817766001_3" function="internal">
        <lane id=":1817766001_3_0" index="0" allow="pedestrian delivery bicycle" speed="8.15" length="8.27" shape="2688.92,10131.34 2691.35,10130.03 2693.14,10128.69 2694.28,10127.31 2694.79,10125.91"/>
    </edge>
    <edge id=":1817766001_4" function="internal">
        <lane id=":1817766001_4_0" index="0" allow="pedestrian delivery bicycle" speed="7.49" length="17.23" shape="2688.92,10131.34 2694.21,10129.54 2697.85,10129.91 2699.84,10132.47 2700.18,10137.20"/>
    </edge>
    <edge id=":1817766001_5" function="internal">
        <lane id=":1817766001_5_0" index="0" allow="pedestrian delivery bicycle" speed="3.65" length="4.67" shape="2688.92,10131.34 2690.35,10131.55 2691.05,10132.10 2691.03,10133.00 2690.29,10134.23"/>
    </edge>
    <edge id=":1817766001_6" function="internal">
        <lane id=":1817766001_6_0" index="0" allow="pedestrian delivery bicycle" speed="4.68" length="5.83" shape="2693.80,10136.67 2693.72,10134.92 2693.10,10133.93 2691.96,10133.70 2690.29,10134.23"/>
    </edge>
    <edge id=":1817766001_7" function="internal">
        <lane id=":1817766001_7_0" index="0" disallow="tram rail_urban rail rail_electric rail_fast ship" speed="27.78" length="10.73" shape="2693.80,10136.67 2694.79,10125.91"/>
        <lane id=":1817766001_7_1" index="1" disallow="tram rail_urban rail rail_electric rail_fast ship" speed="27.78" length="10.73" shape="2696.99,10136.94 2697.96,10126.33"/>
    </edge>
    <edge id=":1817766006_0" function="internal">
        <lane id=":1817766006_0_0" index="0" disallow="pedestrian bicycle tram rail_urban rail rail_electric rail_fast ship" speed="25.00" length="3.60" shape="2949.65,9876.31 2950.63,9875.88 2951.28,9875.55 2951.91,9875.17 2952.79,9874.56"/>
    </edge>
    <edge id=":1817766006_1" function="internal">
        <lane id=":1817766006_1_0" index="0" disallow="pedestrian bicycle tram rail_urban rail rail_electric rail_fast ship" speed="22.23" length="4.30" shape="2951.12,9879.28 2952.19,9878.71 2952.92,9878.30 2953.63,9877.86 2954.64,9877.17"/>
        <lane id=":1817766006_1_1" index="1" disallow="pedestrian bicycle tram rail_urban rail rail_electric rail_fast ship" speed="22.23" length="4.30" shape="2952.64,9882.10 2953.81,9881.47 2954.61,9881.02 2955.39,9880.54 2956.49,9879.78"/>
    </edge>
    <edge id=":206489382-AddedOffRampNode_0" function="internal">
        <lane id=":206489382-AddedOffRampNode_0_0" index="0" allow="private emergency authority army vip passenger hov taxi bus coach delivery truck trailer motorcycle evehicle custom1 custom2" speed="39.44" length="8.20" shape="2007.91,9563.13 2010.39,9562.76 2011.98,9561.74 2013.58,9560.72 2016.06,9560.35"/>
        <lane id=":206489382-AddedOffRampNode_0_1" index="1" allow="private emergency authority army vip passenger hov taxi bus coach delivery truck trailer motorcycle evehicle custom1 custom2" speed="39.44" length="8.20" shape="2007.91,9563.13 2015.90,9563.55"/>
        <lane id=":206489382-AddedOffRampNode_0_2" index="2" allow="private emergency authority army vip passenger hov taxi bus coach delivery truck trailer motorcycle evehicle custom1 custom2" speed="39.44" length="8.20" shape="2007.74,9566.32 2015.73,9566.74"/>
        <lane id=":206489382-AddedOffRampNode_0_3" index="3" allow="private emergency authority army vip passenger hov taxi bus coach delivery truck trailer motorcycle evehicle custom1 custom2" speed="39.44" length="8.20" shape="2007.58,9569.52 2015.57,9569.94"/>
    </edge>
    <edge id=":2821340850_0" function="internal">
        <lane id=":2821340850_0_0" index="0" allow="private emergency authority army vip passenger hov taxi bus coach delivery truck trailer motorcycle evehicle custom1 custom2" speed="30.83" length="2.76" shape="2114.76,9598.64 2112.01,9598.48"/>
    </edge>
    <edge id=":2821340850_1" function="internal">
        <lane id=":2821340850_1_0" index="0" allow="private emergency authority army vip passenger hov taxi bus coach delivery truck trailer motorcycle evehicle custom1 custom2" speed="39.44" length="3.01" shape="2115.01,9595.45 2112.13,9595.24"/>
        <lane id=":2821340850_1_1" index="1" allow="private emergency authority army vip passenger hov taxi bus coach delivery truck trailer motorcycle evehicle custom1 custom2" speed="39.44" length="3.01" shape="2115.26,9592.26 2112.26,9592.04"/>
        <lane id=":2821340850_1_2" index="2" allow="private emergency authority army vip passenger hov taxi bus coach delivery truck trailer motorcycle evehicle custom1 custom2" speed="39.44" length="3.01" shape="2115.51,9589.07 2112.38,9588.84"/>
    </edge>
    <edge id=":3066611345_0" function="internal">
        <lane id=":3066611345_0_0" index="0" disallow="tram rail_urban rail rail_electric rail_fast ship" speed="6.70" length="9.28" shape="3334.57,9409.72 3332.43,9408.49 3330.36,9408.25 3328.35,9408.98 3326.40,9410.69"/>
    </edge>
    <edge id=":3066611345_1" function="internal">
        <lane id=":3066611345_1_0" index="0" disallow="tram rail_urban rail rail_electric rail_fast ship" speed="22.22" length="14.41" shape="3334.57,9409.72 3323.27,9400.78"/>
    </edge>
    <edge id=":3066611345_2" function="internal">
        <lane id=":3066611345_2_0" index="0" disallow="tram rail_urban rail rail_electric rail_fast ship" speed="3.65" length="1.44" shape="3334.57,9409.72 3334.12,9408.35"/>
    </edge>
    <edge id=":3066611345_9" function="internal">
        <lane id=":3066611345_9_0" index="0" disallow="tram rail_urban rail rail_electric rail_fast ship" speed="3.65" length="3.23" shape="3334.12,9408.35 3334.31,9407.47 3335.12,9407.09 3336.55,9407.21"/>
    </edge>
    <edge id=":3066611345_3" function="internal">
        <lane id=":3066611345_3_0" index="0" disallow="tram rail_urban rail rail_electric rail_fast ship" speed="22.22" length="14.41" shape="3325.25,9398.27 3336.55,9407.21"/>
    </edge>
    <edge id=":3066611345_4" function="internal">
        <lane id=":3066611345_4_0" index="0" disallow="tram rail_urban rail rail_electric rail_fast ship" speed="7.92" length="4.11" shape="3325.25,9398.27 3327.98,9401.15 3328.03,9401.28"/>
    </edge>
    <edge id=":3066611345_5" function="internal">
        <lane id=":3066611345_5_0" index="0" disallow="tram rail_urban rail rail_electric rail_fast ship" speed="3.65" length="1.44" shape="3325.25,9398.27 3325.70,9399.64"/>
    </edge>
    <edge id=":3066611345_10" function="internal">
        <lane id=":3066611345_10_0" index="0" disallow="tram rail_urban rail rail_electric rail_fast ship" speed="7.92" length="10.27" shape="3328.03,9401.28 3329.08,9404.18 3328.56,9407.36 3326.40,9410.69"/>
    </edge>
    <edge id=":3066611345_11" function="internal">
        <lane id=":3066611345_11_0" index="0" disallow="tram rail_urban rail rail_electric rail_fast ship" speed="3.65" length="3.23" shape="3325.70,9399.64 3325.51,9400.52 3324.70,9400.90 3323.27,9400.78"/>
    </edge>
    <edge id=":3066611345_6" function="internal">
        <lane id=":3066611345_6_0" index="0" disallow="tram rail_urban rail rail_electric rail_fast ship" speed="6.41" length="9.04" shape="3323.99,9408.59 3325.34,9406.49 3325.68,9404.49 3324.98,9402.59 3323.27,9400.78"/>
    </edge>
    <edge id=":3066611345_7" function="internal">
        <lane id=":3066611345_7_0" index="0" disallow="tram rail_urban rail rail_electric rail_fast ship" speed="8.16" length="14.26" shape="3323.99,9408.59 3326.96,9405.99 3330.05,9404.89 3333.25,9405.30 3336.55,9407.21"/>
    </edge>
    <edge id=":3066611345_8" function="internal">
        <lane id=":3066611345_8_0" index="0" disallow="tram rail_urban rail rail_electric rail_fast ship" speed="3.65" length="4.67" shape="3323.99,9408.59 3325.38,9408.21 3326.25,9408.43 3326.59,9409.26 3326.40,9410.69"/>
    </edge>
    <edge id=":3066611364_0" function="internal">
        <lane id=":3066611364_0_0" index="0" disallow="tram rail_urban rail rail_electric rail_fast ship" speed="22.22" length="10.01" shape="3203.25,9480.40 3193.41,9482.22"/>
    </edge>
    <edge id=":3066611364_1" function="internal">
        <lane id=":3066611364_1_0" index="0" allow="pedestrian delivery bicycle" speed="6.68" length="3.84" shape="3203.25,9480.40 3199.77,9480.62 3199.45,9480.48"/>
    </edge>
    <edge id=":3066611364_7" function="internal">
        <lane id=":3066611364_7_0" index="0" allow="pedestrian delivery bicycle" speed="6.68" length="8.20" shape="3199.45,9480.48 3197.44,9479.61 3196.27,9477.37 3196.24,9473.88"/>
    </edge>
    <edge id=":3066611364_2" function="internal">
        <lane id=":3066611364_2_0" index="0" allow="pedestrian delivery bicycle" speed="4.76" length="5.47" shape="3199.41,9474.31 3199.42,9475.89 3199.96,9476.91 3201.01,9477.37 3202.59,9477.26"/>
    </edge>
    <edge id=":3066611364_3" function="internal">
        <lane id=":3066611364_3_0" index="0" allow="pedestrian delivery bicycle" speed="7.86" length="10.71" shape="3199.41,9474.31 3198.68,9477.49 3197.43,9479.86 3195.68,9481.44 3193.41,9482.22"/>
    </edge>
    <edge id=":3066611364_4" function="internal">
        <lane id=":3066611364_4_0" index="0" allow="pedestrian delivery bicycle" speed="3.65" length="4.67" shape="3199.41,9474.31 3198.46,9475.39 3197.61,9475.68 3196.87,9475.18 3196.24,9473.88"/>
    </edge>
    <edge id=":3066611364_5" function="internal">
        <lane id=":3066611364_5_0" index="0" allow="pedestrian delivery bicycle" speed="6.29" length="6.57" shape="3192.93,9479.06 3194.14,9478.59 3195.09,9477.56 3195.79,9476.00 3196.24,9473.88"/>
    </edge>
    <edge id=":3066611364_6" function="internal">
        <lane id=":3066611364_6_0" index="0" disallow="tram rail_urban rail rail_electric rail_fast ship" speed="22.22" length="9.83" shape="3192.93,9479.06 3202.59,9477.26"/>
    </edge>
    <edge id=":3182239882_0" function="internal">
        <lane id=":3182239882_0_0" index="0" allow="bicycle" speed="2.04" length="1.46" width="1.00" shape="2456.20,10529.42 2456.46,10529.79 2456.48,10530.07 2456.28,10530.26 2455.84,10530.35"/>
    </edge>
    <edge id=":37374218#1-AddedOnRampNode_0" function="internal">
        <lane id=":37374218#1-AddedOnRampNode_0_0" index="0" allow="private emergency authority army vip passenger hov taxi bus coach delivery truck trailer motorcycle evehicle custom1 custom2" speed="22.22" length="8.00" shape="2094.75,9267.76 2096.15,9259.89"/>
    </edge>
    <edge id=":4088599357_0" function="internal">
        <lane id=":4088599357_0_0" index="0" allow="private emergency authority army vip passenger hov taxi bus coach delivery truck trailer motorcycle evehicle custom1 custom2" speed="22.22" length="0.10" shape="2010.55,9594.53 2010.55,9594.53"/>
    </edge>
    <edge id=":414694391_0" function="internal">
        <lane id=":414694391_0_0" index="0" disallow="tram rail_urban rail rail_electric rail_fast ship" speed="3.65" length="4.67" shape="4127.00,9741.86 4128.36,9742.35 4128.93,9743.03 4128.74,9743.90 4127.76,9744.96"/>
    </edge>
    <edge id=":42064105-AddedOffRampNode_0" function="internal">
        <lane id=":42064105-AddedOffRampNode_0_0" index="0" allow="private emergency authority army vip passenger hov taxi bus coach delivery truck trailer motorcycle evehicle custom1 custom2" speed="39.44" length="8.20" shape="2217.31,9603.48 2214.82,9603.79 2213.20,9604.76 2211.58,9605.74 2209.09,9606.04"/>
        <lane id=":42064105-AddedOffRampNode_0_1" index="1" allow="private emergency authority army vip passenger hov taxi bus coach delivery truck trailer motorcycle evehicle custom1 custom2" speed="39.44" length="8.20" shape="2217.31,9603.48 2209.34,9602.85"/>
        <lane id=":42064105-AddedOffRampNode_0_2" index="2" allow="private emergency authority army vip passenger hov taxi bus coach delivery truck trailer motorcycle evehicle custom1 custom2" speed="39.44" length="8.20" shape="2217.57,9600.29 2209.59,9599.66"/>
        <lane id=":42064105-AddedOffRampNode_0_3" index="3" allow="private emergency authority army vip passenger hov taxi bus coach delivery truck trailer motorcycle evehicle custom1 custom2" speed="39.44" length="8.20" shape="2217.82,9597.10 2209.84,9596.47"/>
    </edge>
    <edge id=":42064223#0-AddedOffRampNode_0" function="internal">
        <lane id=":42064223#0-AddedOffRampNode_0_0" index="0" allow="private emergency authority army vip passenger hov taxi bus coach delivery truck trailer motorcycle evehicle custom1 custom2" speed="22.22" length="8.40" shape="2121.39,10154.17 2120.75,10151.74 2119.56,10150.27 2118.37,10148.80 2117.74,10146.37"/>
        <lane id=":42064223#0-AddedOffRampNode_0_1" index="1" allow="private emergency authority army vip passenger hov taxi bus coach delivery truck trailer motorcycle evehicle custom1 custom2" speed="22.22" length="8.40" shape="2121.39,10154.17 2120.93,10146.19"/>
    </edge>
    <edge id=":42064223#2-AddedOnRampNode_0" function="internal">
        <lane id=":42064223#2-AddedOnRampNode_0_0" index="0" allow="private emergency authority army vip passenger hov taxi bus coach delivery truck trailer motorcycle evehicle custom1 custom2" speed="22.22" length="8.00" shape="1801.14,9604.40 1794.68,9599.69"/>
    </edge>
    <edge id=":4211777993_0" function="internal">
        <lane id=":4211777993_0_0" index="0" allow="pedestrian delivery" speed="5.52" length="5.57" shape="3230.36,9834.02 3229.63,9832.51 3228.71,9831.51 3227.59,9831.03 3226.27,9831.07"/>
    </edge>
    <edge id=":4211777993_1" function="internal">
        <lane id=":4211777993_1_0" index="0" allow="pedestrian delivery bicycle" speed="3.65" length="4.67" shape="3230.36,9834.02 3230.71,9832.62 3231.33,9831.98 3232.22,9832.09 3233.37,9832.95"/>
    </edge>
    <edge id=":4211777993_2" function="internal">
        <lane id=":4211777993_2_0" index="0" allow="pedestrian delivery" speed="4.91" length="5.16" shape="3235.52,9829.13 3234.16,9829.63 3233.35,9830.43 3233.09,9831.54 3233.37,9832.95"/>
    </edge>
    <edge id=":4211777993_3" function="internal">
        <lane id=":4211777993_3_0" index="0" disallow="bicycle tram rail_urban rail rail_electric rail_fast ship" speed="16.67" length="9.43" shape="3235.52,9829.13 3226.27,9831.07"/>
        <lane id=":4211777993_3_1" index="1" disallow="bicycle tram rail_urban rail rail_electric rail_fast ship" speed="16.67" length="9.43" shape="3234.85,9826.00 3225.62,9827.93"/>
        <lane id=":4211777993_3_2" index="2" disallow="bicycle tram rail_urban rail rail_electric rail_fast ship" speed="16.67" length="9.43" shape="3234.19,9822.87 3224.97,9824.80"/>
    </edge>
    <edge id=":4211783952_0" function="internal">
        <lane id=":4211783952_0_0" index="0" disallow="tram rail_urban rail rail_electric rail_fast ship" speed="22.23" length="9.43" shape="2730.00,10203.49 2727.63,10204.61 2725.51,10204.41 2723.42,10204.24 2721.14,10205.46"/>
    </edge>
    <edge id=":4211783952_1" function="internal">
        <lane id=":4211783952_1_0" index="0" disallow="tram rail_urban rail rail_electric rail_fast ship" speed="3.65" length="1.44" shape="2727.90,10201.07 2726.47,10201.25"/>
    </edge>
    <edge id=":4211783952_5" function="internal">
        <lane id=":4211783952_5_0" index="0" disallow="tram rail_urban rail rail_electric rail_fast ship" speed="3.65" length="3.23" shape="2726.47,10201.25 2725.65,10200.91 2725.43,10200.04 2725.81,10198.65"/>
    </edge>
    <edge id=":4211783952_2" function="internal">
        <lane id=":4211783952_2_0" index="0" disallow="tram rail_urban rail rail_electric rail_fast ship" speed="8.33" length="10.34" shape="2715.23,10199.59 2716.97,10199.83 2718.96,10199.35 2721.21,10198.15 2723.72,10196.23"/>
        <lane id=":4211783952_2_1" index="1" disallow="tram rail_urban rail rail_electric rail_fast ship" speed="8.98" length="10.34" shape="2715.23,10199.59 2718.39,10200.46 2721.20,10200.59 2723.68,10199.98 2725.81,10198.65"/>
    </edge>
    <edge id=":4211783952_4" function="internal">
        <lane id=":4211783952_4_0" index="0" disallow="tram rail_urban rail rail_electric rail_fast ship" speed="5.90" length="6.90" shape="2715.23,10199.59 2718.85,10201.16 2721.05,10202.66 2721.19,10202.92"/>
    </edge>
    <edge id=":4211783952_6" function="internal">
        <lane id=":4211783952_6_0" index="0" disallow="tram rail_urban rail rail_electric rail_fast ship" speed="5.90" length="2.85" shape="2721.19,10202.92 2721.81,10204.09 2721.14,10205.46"/>
    </edge>
    <edge id=":4211783955_0" function="internal">
        <lane id=":4211783955_0_0" index="0" disallow="tram rail_urban rail rail_electric rail_fast ship" speed="14.84" length="22.33" shape="3279.02,10111.15 3275.45,10107.97 3270.87,10105.62 3265.28,10104.12 3258.70,10103.47"/>
    </edge>
    <edge id=":4211783955_1" function="internal">
        <lane id=":4211783955_1_0" index="0" disallow="tram rail_urban rail rail_electric rail_fast ship" speed="22.22" length="28.39" shape="3279.02,10111.15 3275.41,10106.55 3270.45,10099.83 3265.61,10093.02 3262.38,10088.16"/>
    </edge>
    <edge id=":4211783955_2" function="internal">
        <lane id=":4211783955_2_0" index="0" disallow="tram rail_urban rail rail_electric rail_fast ship" speed="8.14" length="22.10" shape="3279.02,10111.15 3274.99,10105.19 3274.42,10100.81 3277.30,10098.01 3283.65,10096.79"/>
    </edge>
    <edge id=":4211783955_3" function="internal">
        <lane id=":4211783955_3_0" index="0" disallow="tram rail_urban rail rail_electric rail_fast ship" speed="3.65" length="4.67" shape="3279.02,10111.15 3278.85,10109.72 3279.20,10108.89 3280.07,10108.68 3281.46,10109.07"/>
    </edge>
    <edge id=":4211783955_4" function="internal">
        <lane id=":4211783955_4_0" index="0" disallow="tram rail_urban rail rail_electric rail_fast ship" speed="5.55" length="9.42" shape="3283.99,10103.18 3281.12,10103.69 3279.74,10104.84 3279.85,10106.64 3281.46,10109.07"/>
    </edge>
    <edge id=":4211783955_5" function="internal">
        <lane id=":4211783955_5_0" index="0" disallow="tram rail_urban rail rail_electric rail_fast ship" speed="16.67" length="25.15" shape="3283.99,10103.18 3258.70,10103.47"/>