<?xml version="1.0" encoding="UTF-8"?>

<!-- generated on 2022-10-05 11:28:20 by Eclipse SUMO netedit Version v1_12_0+2435-bf5f7a8a104
<configuration xmlns:xsi="http://www.w3.org/2001/XMLSchema-instance" xsi:noNamespaceSchemaLocation="http://sumo.dlr.de/xsd/netconvertConfiguration.xsd">

    <input>
        <sumo-net-file value="/home/ubuntu/project/lane_change_sumo/singal_envs/singal_bus.net_v1.xml.net.xml"/>
    </input>

    <output>
        <output-file value="/home/ubuntu/project/lane_change_sumo/singal_envs/singal_bus.net_v1.xml.net.xml"/>
        <output.street-names value="true"/>
    </output>

    <processing>
        <geometry.min-radius.fix.railways value="false"/>
        <geometry.max-grade.fix value="false"/>
        <offset.disable-normalization value="true"/>
        <lefthand value="false"/>
    </processing>

    <junctions>
        <no-turnarounds value="true"/>
        <junctions.corner-detail value="5"/>
        <junctions.limit-turn-speed value="5.5"/>
        <rectangular-lane-cut value="false"/>
    </junctions>

    <pedestrian>
        <walkingareas value="false"/>
    </pedestrian>

    <report>
        <aggregate-warnings value="5"/>
    </report>

</configuration>
-->

<net version="1.9" junctionCornerDetail="5" limitTurnSpeed="5.50" xmlns:xsi="http://www.w3.org/2001/XMLSchema-instance" xsi:noNamespaceSchemaLocation="http://sumo.dlr.de/xsd/net_file.xsd">

    <location netOffset="-329774.10,-4119151.11" convBoundary="1210.60,0.00,3808.73,10942.20" origBoundary="127.079533,37.203543,127.133703,37.373108" projParameter="+proj=utm +zone=52 +ellps=WGS84 +datum=WGS84 +units=m +no_defs"/>

    <type id="highway.bridleway" priority="1" numLanes="1" speed="2.78" allow="pedestrian" oneway="1" width="2.00"/>
    <type id="highway.bus_guideway" priority="1" numLanes="1" speed="27.78" allow="bus" oneway="1"/>
    <type id="highway.cycleway" priority="1" numLanes="1" speed="8.33" allow="bicycle" oneway="0" width="1.00"/>
    <type id="highway.footway" priority="1" numLanes="1" speed="2.78" allow="pedestrian" oneway="1" width="2.00"/>
    <type id="highway.ford" priority="1" numLanes="1" speed="2.78" allow="army" oneway="0"/>
    <type id="highway.living_street" priority="2" numLanes="1" speed="2.78" disallow="tram rail_urban rail rail_electric rail_fast ship" oneway="0"/>
    <type id="highway.motorway" priority="14" numLanes="2" speed="39.44" allow="private emergency authority army vip passenger hov taxi bus coach delivery truck trailer motorcycle evehicle custom1 custom2" oneway="1"/>
    <type id="highway.motorway_link" priority="9" numLanes="1" speed="22.22" allow="private emergency authority army vip passenger hov taxi bus coach delivery truck trailer motorcycle evehicle custom1 custom2" oneway="1"/>
    <type id="highway.path" priority="1" numLanes="1" speed="2.78" allow="pedestrian bicycle" oneway="0" width="2.00"/>
    <type id="highway.pedestrian" priority="1" numLanes="1" speed="2.78" allow="pedestrian" oneway="1" width="2.00"/>
    <type id="highway.primary" priority="12" numLanes="2" speed="27.78" disallow="tram rail_urban rail rail_electric rail_fast ship" oneway="0"/>
    <type id="highway.primary_link" priority="7" numLanes="1" speed="22.22" disallow="tram rail_urban rail rail_electric rail_fast ship" oneway="0"/>
    <type id="highway.raceway" priority="15" numLanes="2" speed="83.33" allow="vip" oneway="0"/>
    <type id="highway.residential" priority="3" numLanes="1" speed="13.89" disallow="tram rail_urban rail rail_electric rail_fast ship" oneway="0"/>
    <type id="highway.secondary" priority="11" numLanes="1" speed="27.78" disallow="tram rail_urban rail rail_electric rail_fast ship" oneway="0"/>
    <type id="highway.secondary_link" priority="6" numLanes="1" speed="22.22" disallow="tram rail_urban rail rail_electric rail_fast ship" oneway="0"/>
    <type id="highway.service" priority="1" numLanes="1" speed="5.56" allow="pedestrian delivery bicycle" oneway="0"/>
    <type id="highway.stairs" priority="1" numLanes="1" speed="1.39" allow="pedestrian" oneway="1" width="2.00"/>
    <type id="highway.step" priority="1" numLanes="1" speed="1.39" allow="pedestrian" oneway="1" width="2.00"/>
    <type id="highway.steps" priority="1" numLanes="1" speed="1.39" allow="pedestrian" oneway="1" width="2.00"/>
    <type id="highway.tertiary" priority="10" numLanes="1" speed="22.22" disallow="tram rail_urban rail rail_electric rail_fast ship" oneway="0"/>
    <type id="highway.tertiary_link" priority="5" numLanes="1" speed="22.22" disallow="tram rail_urban rail rail_electric rail_fast ship" oneway="0"/>
    <type id="highway.track" priority="1" numLanes="1" speed="5.56" allow="pedestrian motorcycle moped bicycle" oneway="0"/>
    <type id="highway.trunk" priority="13" numLanes="2" speed="27.78" disallow="pedestrian bicycle tram rail_urban rail rail_electric rail_fast ship" oneway="0"/>
    <type id="highway.trunk_link" priority="8" numLanes="1" speed="22.22" disallow="pedestrian bicycle tram rail_urban rail rail_electric rail_fast ship" oneway="0"/>
    <type id="highway.unclassified" priority="4" numLanes="1" speed="13.89" disallow="tram rail_urban rail rail_electric rail_fast ship" oneway="0"/>
    <type id="highway.unsurfaced" priority="1" numLanes="1" speed="8.33" disallow="tram rail_urban rail rail_electric rail_fast ship" oneway="0"/>
    <type id="railway.highspeed" priority="21" numLanes="1" speed="69.44" allow="rail_fast" oneway="1"/>
    <type id="railway.light_rail" priority="19" numLanes="1" speed="27.78" allow="rail_urban" oneway="1"/>
    <type id="railway.preserved" priority="16" numLanes="1" speed="27.78" allow="rail" oneway="1"/>
    <type id="railway.rail" priority="20" numLanes="1" speed="44.44" allow="rail" oneway="1"/>
    <type id="railway.subway" priority="18" numLanes="1" speed="27.78" allow="rail_urban" oneway="1"/>
    <type id="railway.tram" priority="17" numLanes="1" speed="13.89" allow="tram" oneway="1"/>

    <edge id=":206489382-AddedOffRampNode_0" function="internal">
        <lane id=":206489382-AddedOffRampNode_0_0" index="0" allow="private emergency authority army vip passenger hov taxi bus coach delivery truck trailer motorcycle evehicle custom1 custom2" speed="39.44" length="8.20" shape="2007.91,9563.13 2010.39,9562.76 2011.98,9561.74 2013.58,9560.72 2016.06,9560.35"/>
        <lane id=":206489382-AddedOffRampNode_0_1" index="1" allow="private emergency authority army vip passenger hov taxi bus coach delivery truck trailer motorcycle evehicle custom1 custom2" speed="39.44" length="8.20" shape="2007.91,9563.13 2015.90,9563.55"/>
        <lane id=":206489382-AddedOffRampNode_0_2" index="2" allow="private emergency authority army vip passenger hov taxi bus coach delivery truck trailer motorcycle evehicle custom1 custom2" speed="39.44" length="8.20" shape="2007.74,9566.32 2015.73,9566.74"/>
        <lane id=":206489382-AddedOffRampNode_0_3" index="3" allow="private emergency authority army vip passenger hov taxi bus coach delivery truck trailer motorcycle evehicle custom1 custom2" speed="39.44" length="8.20" shape="2007.58,9569.52 2015.57,9569.94"/>
    </edge>
    <edge id=":2821340850_0" function="internal">
        <lane id=":2821340850_0_0" index="0" allow="private emergency authority army vip passenger hov taxi bus coach delivery truck trailer motorcycle evehicle custom1 custom2" speed="30.83" length="2.76" shape="2114.76,9598.64 2112.01,9598.48"/>
    </edge>
    <edge id=":2821340850_1" function="internal">
        <lane id=":2821340850_1_0" index="0" allow="private emergency authority army vip passenger hov taxi bus coach delivery truck trailer motorcycle evehicle custom1 custom2" speed="39.44" length="3.01" shape="2115.01,9595.45 2112.13,9595.24"/>
        <lane id=":2821340850_1_1" index="1" allow="private emergency authority army vip passenger hov taxi bus coach delivery truck trailer motorcycle evehicle custom1 custom2" speed="39.44" length="3.01" shape="2115.26,9592.26 2112.26,9592.04"/>
        <lane id=":2821340850_1_2" index="2" allow="private emergency authority army vip passenger hov taxi bus coach delivery truck trailer motorcycle evehicle custom1 custom2" speed="39.44" length="3.01" shape="2115.51,9589.07 2112.38,9588.84"/>
    </edge>
    <edge id=":37374218#1-AddedOnRampNode_0" function="internal">
        <lane id=":37374218#1-AddedOnRampNode_0_0" index="0" allow="private emergency authority army vip passenger hov taxi bus coach delivery truck trailer motorcycle evehicle custom1 custom2" speed="22.22" length="8.00" shape="2094.75,9267.76 2096.15,9259.89"/>
    </edge>
    <edge id=":4088599357_0" function="internal">
        <lane id=":4088599357_0_0" index="0" allow="private emergency authority army vip passenger hov taxi bus coach delivery truck trailer motorcycle evehicle custom1 custom2" speed="22.22" length="0.10" shape="2010.55,9594.53 2010.55,9594.53"/>
    </edge>
    <edge id=":42064105-AddedOffRampNode_0" function="internal">
        <lane id=":42064105-AddedOffRampNode_0_0" index="0" allow="private emergency authority army vip passenger hov taxi bus coach delivery truck trailer motorcycle evehicle custom1 custom2" speed="39.44" length="8.20" shape="2217.31,9603.48 2214.82,9603.79 2213.20,9604.76 2211.58,9605.74 2209.09,9606.04"/>
        <lane id=":42064105-AddedOffRampNode_0_1" index="1" allow="private emergency authority army vip passenger hov taxi bus coach delivery truck trailer motorcycle evehicle custom1 custom2" speed="39.44" length="8.20" shape="2217.31,9603.48 2209.34,9602.85"/>
        <lane id=":42064105-AddedOffRampNode_0_2" index="2" allow="private emergency authority army vip passenger hov taxi bus coach delivery truck trailer motorcycle evehicle custom1 custom2" speed="39.44" length="8.20" shape="2217.57,9600.29 2209.59,9599.66"/>
        <lane id=":42064105-AddedOffRampNode_0_3" index="3" allow="private emergency authority army vip passenger hov taxi bus coach delivery truck trailer motorcycle evehicle custom1 custom2" speed="39.44" length="8.20" shape="2217.82,9597.10 2209.84,9596.47"/>
    </edge>
    <edge id=":42064223#0-AddedOffRampNode_0" function="internal">
        <lane id=":42064223#0-AddedOffRampNode_0_0" index="0" allow="private emergency authority army vip passenger hov taxi bus coach delivery truck trailer motorcycle evehicle custom1 custom2" speed="22.22" length="8.40" shape="2121.39,10154.17 2120.75,10151.74 2119.56,10150.27 2118.37,10148.80 2117.74,10146.37"/>
        <lane id=":42064223#0-AddedOffRampNode_0_1" index="1" allow="private emergency authority army vip passenger hov taxi bus coach delivery truck trailer motorcycle evehicle custom1 custom2" speed="22.22" length="8.40" shape="2121.39,10154.17 2120.93,10146.19"/>
    </edge>
    <edge id=":42064223#2-AddedOnRampNode_0" function="internal">
        <lane id=":42064223#2-AddedOnRampNode_0_0" index="0" allow="private emergency authority army vip passenger hov taxi bus coach delivery truck trailer motorcycle evehicle custom1 custom2" speed="22.22" length="8.00" shape="1801.14,9604.40 1794.68,9599.69"/>
    </edge>
    <edge id=":436210017_0" function="internal">
        <lane id=":436210017_0_0" index="0" allow="private emergency authority army vip passenger hov taxi bus coach delivery truck trailer motorcycle evehicle custom1 custom2" speed="26.39" length="3.13" shape="2122.95,10180.67 2122.71,10177.55"/>
    </edge>
    <edge id=":436210017_1" function="internal">
        <lane id=":436210017_1_0" index="0" allow="private emergency authority army vip passenger hov taxi bus coach delivery truck trailer motorcycle evehicle custom1 custom2" speed="30.56" length="2.80" shape="2126.13,10180.36 2126.05,10179.48 2125.99,10178.87 2125.96,10178.26 2125.95,10177.37"/>
        <lane id=":436210017_1_1" index="1" allow="private emergency authority army vip passenger hov taxi bus coach delivery truck trailer motorcycle evehicle custom1 custom2" speed="30.56" length="2.80" shape="2129.32,10180.05 2129.23,10179.20 2129.19,10178.62 2129.16,10178.04 2129.15,10177.19"/>
        <lane id=":436210017_1_2" index="2" allow="private emergency authority army vip passenger hov taxi bus coach delivery truck trailer motorcycle evehicle custom1 custom2" speed="30.56" length="2.80" shape="2132.50,10179.73 2132.42,10178.93 2132.38,10178.37 2132.36,10177.82 2132.35,10177.01"/>
        <lane id=":436210017_1_3" index="3" allow="private emergency authority army vip passenger hov taxi bus coach delivery truck trailer motorcycle evehicle custom1 custom2" speed="30.56" length="2.80" shape="2135.69,10179.42 2135.61,10178.65 2135.57,10178.13 2135.56,10177.60 2135.55,10176.83"/>
    </edge>
    <edge id=":436210080_0" function="internal">
        <lane id=":436210080_0_0" index="0" allow="private emergency authority army vip passenger hov taxi bus coach delivery truck trailer motorcycle evehicle custom1 custom2" speed="22.22" length="7.98" shape="1864.80,9680.64 1859.88,9674.36"/>
    </edge>
    <edge id=":436210313_0" function="internal">
        <lane id=":436210313_0_0" index="0" allow="private emergency authority army vip passenger hov taxi bus coach delivery truck trailer motorcycle evehicle custom1 custom2" speed="22.22" length="3.11" shape="2066.37,9361.07 2067.32,9358.11"/>
    </edge>
    <edge id=":436210313_1" function="internal">
        <lane id=":436210313_1_0" index="0" allow="private emergency authority army vip passenger hov taxi bus coach delivery truck trailer motorcycle evehicle custom1 custom2" speed="22.22" length="3.03" shape="2069.63,9361.91 2070.40,9358.97"/>
    </edge>
    <edge id=":436210332_0" function="internal">
        <lane id=":436210332_0_0" index="0" allow="private emergency authority army vip passenger hov taxi bus coach delivery truck trailer motorcycle evehicle custom1 custom2" speed="30.83" length="2.91" shape="2638.42,9674.68 2635.56,9674.15"/>
    </edge>
    <edge id=":436210332_1" function="internal">
        <lane id=":436210332_1_0" index="0" allow="private emergency authority army vip passenger hov taxi bus coach delivery truck trailer motorcycle evehicle custom1 custom2" speed="39.44" length="3.02" shape="2639.04,9671.54 2636.13,9670.96"/>
        <lane id=":436210332_1_1" index="1" allow="private emergency authority army vip passenger hov taxi bus coach delivery truck trailer motorcycle evehicle custom1 custom2" speed="39.44" length="3.02" shape="2639.65,9668.40 2636.69,9667.80"/>
        <lane id=":436210332_1_2" index="2" allow="private emergency authority army vip passenger hov taxi bus coach delivery truck trailer motorcycle evehicle custom1 custom2" speed="39.44" length="3.02" shape="2640.27,9665.26 2637.24,9664.65"/>
    </edge>
    <edge id=":436220638_0" function="internal">
        <lane id=":436220638_0_0" index="0" allow="private emergency authority army vip passenger hov taxi bus coach delivery truck trailer motorcycle evehicle custom1 custom2" speed="26.39" length="3.15" shape="2102.69,9103.69 2102.67,9100.54"/>
    </edge>
    <edge id=":436220638_1" function="internal">
        <lane id=":436220638_1_0" index="0" allow="private emergency authority army vip passenger hov taxi bus coach delivery truck trailer motorcycle evehicle custom1 custom2" speed="30.56" length="2.93" shape="2105.91,9103.60 2105.87,9100.53"/>
        <lane id=":436220638_1_1" index="1" allow="private emergency authority army vip passenger hov taxi bus coach delivery truck trailer motorcycle evehicle custom1 custom2" speed="30.56" length="2.93" shape="2109.11,9103.51 2109.07,9100.53"/>
        <lane id=":436220638_1_2" index="2" allow="private emergency authority army vip passenger hov taxi bus coach delivery truck trailer motorcycle evehicle custom1 custom2" speed="30.56" length="2.93" shape="2112.31,9103.42 2112.27,9100.53"/>
        <lane id=":436220638_1_3" index="3" allow="private emergency authority army vip passenger hov taxi bus coach delivery truck trailer motorcycle evehicle custom1 custom2" speed="30.56" length="2.93" shape="2115.51,9103.33 2115.47,9100.53"/>
    </edge>
    <edge id=":436220650_0" function="internal">
        <lane id=":436220650_0_0" index="0" allow="private emergency authority army vip passenger hov taxi bus coach delivery truck trailer motorcycle evehicle custom1 custom2" speed="30.83" length="3.02" shape="2110.46,9565.43 2113.47,9565.60"/>
    </edge>
    <edge id=":436220650_1" function="internal">
        <lane id=":436220650_1_0" index="0" allow="private emergency authority army vip passenger hov taxi bus coach delivery truck trailer motorcycle evehicle custom1 custom2" speed="39.44" length="2.98" shape="2110.29,9568.62 2113.28,9568.86"/>
        <lane id=":436220650_1_1" index="1" allow="private emergency authority army vip passenger hov taxi bus coach delivery truck trailer motorcycle evehicle custom1 custom2" speed="39.44" length="2.98" shape="2110.11,9571.82 2113.09,9572.05"/>
        <lane id=":436220650_1_2" index="2" allow="private emergency authority army vip passenger hov taxi bus coach delivery truck trailer motorcycle evehicle custom1 custom2" speed="39.44" length="2.98" shape="2109.94,9575.01 2112.90,9575.25"/>
    </edge>
    <edge id=":436220664_0" function="internal">
        <lane id=":436220664_0_0" index="0" allow="private emergency authority army vip passenger hov taxi bus coach delivery truck trailer motorcycle evehicle custom1 custom2" speed="22.22" length="3.34" shape="2201.96,9764.85 2201.51,9765.73 2201.23,9766.35 2201.01,9767.00 2200.75,9767.95"/>
    </edge>
    <edge id=":436220664_1" function="internal">
        <lane id=":436220664_1_0" index="0" allow="private emergency authority army vip passenger hov taxi bus coach delivery truck trailer motorcycle evehicle custom1 custom2" speed="22.22" length="3.34" shape="2198.53,9763.90 2197.66,9767.12"/>
    </edge>
    <edge id=":436220666_0" function="internal">
        <lane id=":436220666_0_0" index="0" allow="private emergency authority army vip passenger hov taxi bus coach delivery truck trailer motorcycle evehicle custom1 custom2" speed="26.39" length="3.45" shape="2164.93,10163.20 2165.00,10165.81"/>
        <lane id=":436220666_0_1" index="1" allow="private emergency authority army vip passenger hov taxi bus coach delivery truck trailer motorcycle evehicle custom1 custom2" speed="26.39" length="3.45" shape="2164.93,10163.20 2161.81,10165.99"/>
        <lane id=":436220666_0_2" index="2" allow="private emergency authority army vip passenger hov taxi bus coach delivery truck trailer motorcycle evehicle custom1 custom2" speed="26.39" length="3.45" shape="2161.73,10163.26 2161.81,10165.99"/>
        <lane id=":436220666_0_3" index="3" allow="private emergency authority army vip passenger hov taxi bus coach delivery truck trailer motorcycle evehicle custom1 custom2" speed="26.39" length="3.45" shape="2161.73,10163.26 2158.61,10166.17"/>
    </edge>
    <edge id=":436220666_4" function="internal">
        <lane id=":436220666_4_0" index="0" allow="private emergency authority army vip passenger hov taxi bus coach delivery truck trailer motorcycle evehicle custom1 custom2" speed="30.56" length="4.21" shape="2160.10,10163.29 2158.61,10166.17"/>
        <lane id=":436220666_4_1" index="1" allow="private emergency authority army vip passenger hov taxi bus coach delivery truck trailer motorcycle evehicle custom1 custom2" speed="30.56" length="4.21" shape="2160.10,10163.29 2155.42,10166.35"/>
        <lane id=":436220666_4_2" index="2" allow="private emergency authority army vip passenger hov taxi bus coach delivery truck trailer motorcycle evehicle custom1 custom2" speed="30.56" length="4.21" shape="2156.90,10163.35 2156.67,10164.29 2156.14,10164.85 2155.61,10165.41 2155.42,10166.35"/>
        <lane id=":436220666_4_3" index="3" allow="private emergency authority army vip passenger hov taxi bus coach delivery truck trailer motorcycle evehicle custom1 custom2" speed="30.56" length="4.21" shape="2156.90,10163.35 2152.22,10166.54"/>
        <lane id=":436220666_4_4" index="4" allow="private emergency authority army vip passenger hov taxi bus coach delivery truck trailer motorcycle evehicle custom1 custom2" speed="30.56" length="4.21" shape="2153.70,10163.41 2153.47,10164.38 2152.94,10164.97 2152.42,10165.56 2152.22,10166.54"/>
        <lane id=":436220666_4_5" index="5" allow="bus" speed="30.56" length="4.21" shape="2150.50,10163.47 2150.27,10164.48 2149.74,10165.09 2149.22,10165.71 2149.03,10166.72"/>
    </edge>
    <edge id=":541646125_0" function="internal">
        <lane id=":541646125_0_0" index="0" allow="private emergency authority army vip passenger hov taxi bus coach delivery truck trailer motorcycle evehicle custom1 custom2" speed="22.22" length="7.44" shape="2112.51,10054.27 2112.38,10052.07 2112.25,10050.56 2112.06,10049.07 2111.72,10046.88"/>
    </edge>
    <edge id=":660731150-AddedOnRampNode_0" function="internal">
        <lane id=":660731150-AddedOnRampNode_0_0" index="0" allow="private emergency authority army vip passenger hov taxi bus coach delivery truck trailer motorcycle evehicle custom1 custom2" speed="22.22" length="1.61" shape="2175.26,9862.94 2173.71,9862.52"/>
        <lane id=":660731150-AddedOnRampNode_0_1" index="1" allow="private emergency authority army vip passenger hov taxi bus coach delivery truck trailer motorcycle evehicle custom1 custom2" speed="22.22" length="1.61" shape="2172.16,9862.12 2170.61,9861.70"/>
    </edge>
    <edge id=":node5_0" function="internal">
        <lane id=":node5_0_0" index="0" allow="private emergency authority army vip passenger hov taxi bus coach delivery truck trailer motorcycle evehicle custom1 custom2" speed="22.23" length="10.92" shape="2175.51,10257.76 2175.88,10261.24 2175.24,10263.66 2174.34,10266.12 2173.94,10269.71"/>
        <lane id=":node5_0_1" index="1" allow="private emergency authority army vip passenger hov taxi bus coach delivery truck trailer motorcycle evehicle custom1 custom2" speed="22.23" length="10.92" shape="2175.51,10257.76 2175.42,10261.37 2173.67,10263.69 2171.65,10266.05 2170.74,10269.78"/>
        <lane id=":node5_0_2" index="2" allow="private emergency authority army vip passenger hov taxi bus coach delivery truck trailer motorcycle evehicle custom1 custom2" speed="22.23" length="10.92" shape="2172.41,10258.56 2172.73,10261.83 2172.06,10264.10 2171.15,10266.40 2170.74,10269.78"/>
        <lane id=":node5_0_3" index="3" allow="private emergency authority army vip passenger hov taxi bus coach delivery truck trailer motorcycle evehicle custom1 custom2" speed="22.23" length="10.92" shape="2172.41,10258.56 2172.27,10261.97 2170.50,10264.13 2168.46,10266.33 2167.54,10269.85"/>
        <lane id=":node5_0_4" index="4" allow="private emergency authority army vip passenger hov taxi bus coach delivery truck trailer motorcycle evehicle custom1 custom2" speed="22.23" length="10.92" shape="2169.31,10259.36 2169.57,10262.42 2168.88,10264.54 2167.96,10266.69 2167.54,10269.85"/>
        <lane id=":node5_0_5" index="5" allow="private emergency authority army vip passenger hov taxi bus coach delivery truck trailer motorcycle evehicle custom1 custom2" speed="22.23" length="10.92" shape="2166.21,10260.15 2166.92,10262.98 2167.29,10264.94 2167.46,10266.93 2167.54,10269.85"/>
        <lane id=":node5_0_6" index="6" allow="private emergency authority army vip passenger hov taxi bus coach delivery truck trailer motorcycle evehicle custom1 custom2" speed="22.23" length="10.92" shape="2166.21,10260.15 2166.42,10263.01 2165.70,10264.98 2164.76,10266.97 2164.34,10269.91"/>
        <lane id=":node5_0_7" index="7" allow="private emergency authority army vip passenger hov taxi bus coach delivery truck trailer motorcycle evehicle custom1 custom2" speed="22.23" length="10.92" shape="2163.11,10260.95 2163.76,10263.56 2164.11,10265.38 2164.27,10267.22 2164.34,10269.91"/>
        <lane id=":node5_0_8" index="8" allow="bus" speed="22.23" length="10.92" shape="2160.01,10261.75 2160.61,10264.15 2160.93,10265.82 2161.07,10267.51 2161.14,10269.98"/>
    </edge>

    <edge id="170601193" from="558884038" to="436220666" name="경부고속도로" priority="14" type="highway.motorway" spreadType="center" shape="2133.32,8818.01 2146.27,9599.03 2147.77,9735.58 2148.26,9782.25 2155.33,10164.88">
        <lane id="170601193_0" index="0" allow="private emergency authority army vip passenger hov taxi bus coach delivery truck trailer motorcycle evehicle custom1 custom2" speed="30.56" length="1345.55" shape="2138.12,8817.93 2151.07,9598.96 2152.57,9735.53 2153.06,9782.18 2160.10,10163.29">
            <param key="origId" value="170601193 43947396 43947365"/>
        </lane>
        <lane id="170601193_1" index="1" allow="private emergency authority army vip passenger hov taxi bus coach delivery truck trailer motorcycle evehicle custom1 custom2" speed="30.56" length="1345.55" shape="2134.92,8817.98 2147.87,9599.01 2149.37,9735.56 2149.86,9782.23 2156.90,10163.35">
            <param key="origId" value="170601193 43947396 43947365"/>
        </lane>
        <lane id="170601193_2" index="2" allow="private emergency authority army vip passenger hov taxi bus coach delivery truck trailer motorcycle evehicle custom1 custom2" speed="30.56" length="1345.55" shape="2131.72,8818.04 2144.67,9599.05 2146.17,9735.60 2146.66,9782.27 2153.70,10163.41">
            <param key="origId" value="170601193 43947396 43947365"/>
        </lane>
        <lane id="170601193_3" index="3" allow="bus" speed="30.56" length="1345.55" shape="2128.52,8818.09 2141.47,9599.10 2142.97,9735.63 2143.46,9782.32 2150.50,10163.47">
            <param key="origId" value="170601193 43947396 43947365"/>
        </lane>
        <param key="ref" value="1"/>
    </edge>
    <edge id="206489382" from="436276861" to="206489382-AddedOffRampNode" name="영동고속도로" priority="14" type="highway.motorway" spreadType="center" shape="1695.15,9545.97 1851.36,9558.26 2011.74,9566.53">
        <lane id="206489382_0" index="0" allow="private emergency authority army vip passenger hov taxi bus coach delivery truck trailer motorcycle evehicle custom1 custom2" speed="39.44" length="264.48" shape="1744.06,9546.61 1851.57,9555.07 2007.91,9563.13">
            <param key="origId" value="206489382 43947390"/>
        </lane>
        <lane id="206489382_1" index="1" allow="private emergency authority army vip passenger hov taxi bus coach delivery truck trailer motorcycle evehicle custom1 custom2" speed="39.44" length="264.48" shape="1743.81,9549.80 1851.36,9558.26 2007.74,9566.32">
            <param key="origId" value="206489382 43947390"/>
        </lane>
        <lane id="206489382_2" index="2" allow="private emergency authority army vip passenger hov taxi bus coach delivery truck trailer motorcycle evehicle custom1 custom2" speed="39.44" length="264.48" shape="1743.55,9552.99 1851.15,9561.45 2007.58,9569.52">
            <param key="origId" value="206489382 43947390"/>
        </lane>
        <param key="ref" value="50"/>
    </edge>
    <edge id="206489382-AddedOffRampEdge" from="206489382-AddedOffRampNode" to="436220650" name="영동고속도로" priority="14" type="highway.motorway" spreadType="center" shape="2011.82,9564.94 2019.65,9565.34 2111.68,9570.30">
        <lane id="206489382-AddedOffRampEdge_0" index="0" allow="private emergency authority army vip passenger hov taxi bus coach delivery truck trailer motorcycle evehicle custom1 custom2" speed="39.44" length="94.52" shape="2016.06,9560.35 2019.90,9560.55 2110.46,9565.43">
            <param key="origId" value="206489382 43947390"/>
        </lane>
        <lane id="206489382-AddedOffRampEdge_1" index="1" allow="private emergency authority army vip passenger hov taxi bus coach delivery truck trailer motorcycle evehicle custom1 custom2" speed="39.44" length="94.52" shape="2015.90,9563.55 2019.73,9563.74 2110.29,9568.62">
            <param key="origId" value="206489382 43947390"/>
        </lane>
        <lane id="206489382-AddedOffRampEdge_2" index="2" allow="private emergency authority army vip passenger hov taxi bus coach delivery truck trailer motorcycle evehicle custom1 custom2" speed="39.44" length="94.52" shape="2015.73,9566.74 2019.57,9566.94 2110.11,9571.82">
            <param key="origId" value="206489382 43947390"/>
        </lane>
        <lane id="206489382-AddedOffRampEdge_3" index="3" allow="private emergency authority army vip passenger hov taxi bus coach delivery truck trailer motorcycle evehicle custom1 custom2" speed="39.44" length="94.52" shape="2015.57,9569.94 2019.40,9570.13 2109.94,9575.01">
            <param key="origId" value="206489382 43947390"/>
        </lane>
        <param key="ref" value="50"/>
    </edge>
    <edge id="277653330" from="4088599357" to="436210313" priority="9" type="highway.motorway_link" spreadType="center" shape="2010.55,9594.53 1972.47,9596.27 1949.71,9599.07 1927.50,9605.92 1914.65,9617.36 1906.37,9631.59 1900.08,9645.54 1897.62,9666.78 1900.88,9686.53 1907.25,9701.05 1925.52,9718.57 1946.27,9727.03 1972.61,9728.92 1992.05,9723.27 2010.41,9713.01 2025.65,9693.05 2032.15,9667.50 2032.43,9612.60 2033.31,9549.97 2037.53,9497.61 2048.58,9449.43 2069.98,9360.46">
        <lane id="277653330_0" index="0" allow="private emergency authority army vip passenger hov taxi bus coach delivery truck trailer motorcycle evehicle custom1 custom2" speed="22.22" length="666.92" shape="2010.55,9594.53 1972.47,9596.27 1949.71,9599.07 1927.50,9605.92 1914.65,9617.36 1906.37,9631.59 1900.08,9645.54 1897.62,9666.78 1900.88,9686.53 1907.25,9701.05 1925.52,9718.57 1946.27,9727.03 1972.61,9728.92 1992.05,9723.27 2010.41,9713.01 2025.65,9693.05 2032.15,9667.50 2032.43,9612.60 2033.31,9549.97 2037.53,9497.61 2048.58,9449.43 2069.63,9361.91">
            <param key="origId" value="277653330"/>
        </lane>
    </edge>